data_image0
_chemical_formula_structural       La8Ni40
_chemical_formula_sum              "La8 Ni40"
_cell_length_a       10.82181532
_cell_length_b       10.82181532
_cell_length_c       8.13831
_cell_angle_alpha    90.0
_cell_angle_beta     90.0
_cell_angle_gamma    119.99999999999999

_space_group_name_H-M_alt    "P 1"
_space_group_IT_number       1

loop_
  _space_group_symop_operation_xyz
  'x, y, z'

loop_
  _atom_site_type_symbol
  _atom_site_label
  _atom_site_symmetry_multiplicity
  _atom_site_fract_x
  _atom_site_fract_y
  _atom_site_fract_z
  _atom_site_occupancy
  La  La1       1.0  4.479981835873444e-17  8.488781509026399e-17  0.485209334997722  1.0000
  La  La2       1.0  0.9999999999999999  0.9999999999999999  0.9852093349977229  1.0000
  La  La3       1.0  0.0  0.5  0.4852093349977219  1.0000
  La  La4       1.0  4.103648017623559e-17  0.5000000000000001  0.9852093349977227  1.0000
  La  La5       1.0  0.5  0.9999999999999999  0.48520933499772195  1.0000
  La  La6       1.0  0.5  7.738157764734428e-17  0.9852093349977227  1.0000
  La  La7       1.0  0.5  0.5  0.48520933499772195  1.0000
  La  La8       1.0  0.49999999999999994  0.49999999999999994  0.9852093349977227  1.0000
  Ni  Ni1       1.0  0.16666666649189532  0.3333333335081057  0.4908644257733424  1.0000
  Ni  Ni2       1.0  0.1666666664918931  0.33333333350810607  0.9908644257733423  1.0000
  Ni  Ni3       1.0  0.1666666664918943  0.8333333335081049  0.49086442577334244  1.0000
  Ni  Ni4       1.0  0.16666666649189393  0.8333333335081068  0.9908644257733425  1.0000
  Ni  Ni5       1.0  0.6666666664918947  0.33333333350810496  0.4908644257733423  1.0000
  Ni  Ni6       1.0  0.6666666664918939  0.3333333335081067  0.9908644257733423  1.0000
  Ni  Ni7       1.0  0.6666666664918952  0.8333333335081058  0.49086442577334244  1.0000
  Ni  Ni8       1.0  0.6666666664918932  0.833333333508106  0.9908644257733423  1.0000
  Ni  Ni9       1.0  0.33333333350810535  0.16666666649189502  0.4908644257733425  1.0000
  Ni  Ni10      1.0  0.33333333350810623  0.16666666649189324  0.9908644257733423  1.0000
  Ni  Ni11      1.0  0.3333333335081049  0.6666666664918943  0.49086442577334244  1.0000
  Ni  Ni12      1.0  0.3333333335081068  0.6666666664918941  0.9908644257733425  1.0000
  Ni  Ni13      1.0  0.8333333335081048  0.16666666649189435  0.4908644257733424  1.0000
  Ni  Ni14      1.0  0.833333333508107  0.16666666649189404  0.9908644257733423  1.0000
  Ni  Ni15      1.0  0.8333333335081056  0.666666666491895  0.49086442577334244  1.0000
  Ni  Ni16      1.0  0.8333333335081061  0.6666666664918932  0.9908644257733423  1.0000
  Ni  Ni17      1.0  0.2500000000000001  4.141876734616622e-18  0.24082460448732954  1.0000
  Ni  Ni18      1.0  0.24999999999999997  0.0  0.7408246044873278  1.0000
  Ni  Ni19      1.0  0.25000000000000033  0.5000000000000001  0.24082460448732873  1.0000
  Ni  Ni20      1.0  0.2500000000000002  0.5  0.7408246044873283  1.0000
  Ni  Ni21      1.0  0.7500000000000002  2.0662634124255464e-17  0.24082460448732873  1.0000
  Ni  Ni22      1.0  0.7500000000000002  3.955361840003505e-17  0.7408246044873285  1.0000
  Ni  Ni23      1.0  0.7500000000000001  0.49999999999999994  0.24082460448732934  1.0000
  Ni  Ni24      1.0  0.7499999999999999  0.49999999999999994  0.7408246044873277  1.0000
  Ni  Ni25      1.0  0.2499999999999997  0.24999999999999972  0.2408246044809345  1.0000
  Ni  Ni26      1.0  0.24999999999999986  0.24999999999999986  0.7408246044809369  1.0000
  Ni  Ni27      1.0  0.2499999999999998  0.7499999999999998  0.24082460448093465  1.0000
  Ni  Ni28      1.0  0.25000000000000006  0.7500000000000001  0.7408246044809368  1.0000
  Ni  Ni29      1.0  0.7499999999999996  0.24999999999999958  0.24082460448093448  1.0000
  Ni  Ni30      1.0  0.7499999999999996  0.24999999999999972  0.7408246044809368  1.0000
  Ni  Ni31      1.0  0.7499999999999999  0.7499999999999999  0.2408246044809347  1.0000
  Ni  Ni32      1.0  0.7500000000000002  0.7500000000000001  0.7408246044809367  1.0000
  Ni  Ni33      1.0  0.0  0.2500000000000005  0.2408246044873296  1.0000
  Ni  Ni34      1.0  0.0  0.2500000000000004  0.7408246044873275  1.0000
  Ni  Ni35      1.0  0.9999999999999999  0.75  0.2408246044873288  1.0000
  Ni  Ni36      1.0  8.207296035247118e-17  0.7499999999999999  0.7408246044873283  1.0000
  Ni  Ni37      1.0  0.49999999999999994  0.2500000000000002  0.24082460448732906  1.0000
  Ni  Ni38      1.0  0.5  0.25000000000000017  0.7408246044873281  1.0000
  Ni  Ni39      1.0  0.5000000000000001  0.7500000000000002  0.24082460448732948  1.0000
  Ni  Ni40      1.0  0.5000000000000001  0.7500000000000002  0.7408246044873277  1.0000
