# generated using pymatgen
data_LaNi5H6
_symmetry_space_group_name_H-M   'P 1'
_cell_length_a   10.82181532
_cell_length_b   10.82181532
_cell_length_c   8.13831000
_cell_angle_alpha   90.00000000
_cell_angle_beta   90.00000000
_cell_angle_gamma   120.00000000
_symmetry_Int_Tables_number   1
_chemical_formula_structural   LaNi5H6
_chemical_formula_sum   'La8 Ni40 H48'
_cell_volume   825.40120169
_cell_formula_units_Z   8
loop_
 _symmetry_equiv_pos_site_id
 _symmetry_equiv_pos_as_xyz
  1  'x, y, z'
loop_
 _atom_site_type_symbol
 _atom_site_label
 _atom_site_symmetry_multiplicity
 _atom_site_fract_x
 _atom_site_fract_y
 _atom_site_fract_z
 _atom_site_occupancy
  La  La0  1  0.00000000  0.00000000  0.43941450  1.0
  La  La1  1  0.00000000  0.00000000  0.93941450  1.0
  La  La2  1  0.00000000  0.50000000  0.43941450  1.0
  La  La3  1  0.00000000  0.50000000  0.93941450  1.0
  La  La4  1  0.50000000  0.00000000  0.43941450  1.0
  La  La5  1  0.50000000  0.00000000  0.93941450  1.0
  La  La6  1  0.50000000  0.50000000  0.43941450  1.0
  La  La7  1  0.50000000  0.50000000  0.93941450  1.0
  Ni  Ni0  1  0.16666667  0.33333333  0.49684200  1.0
  Ni  Ni1  1  0.16666667  0.33333333  0.99684200  1.0
  Ni  Ni2  1  0.16666667  0.83333333  0.49684200  1.0
  Ni  Ni3  1  0.16666667  0.83333333  0.99684200  1.0
  Ni  Ni4  1  0.66666667  0.33333333  0.49684200  1.0
  Ni  Ni5  1  0.66666667  0.33333333  0.99684200  1.0
  Ni  Ni6  1  0.66666667  0.83333333  0.49684200  1.0
  Ni  Ni7  1  0.66666667  0.83333333  0.99684200  1.0
  Ni  Ni8  1  0.33333333  0.16666667  0.49684200  1.0
  Ni  Ni9  1  0.33333333  0.16666667  0.99684200  1.0
  Ni  Ni10  1  0.33333333  0.66666667  0.49684200  1.0
  Ni  Ni11  1  0.33333333  0.66666667  0.99684200  1.0
  Ni  Ni12  1  0.83333333  0.16666667  0.49684200  1.0
  Ni  Ni13  1  0.83333333  0.16666667  0.99684200  1.0
  Ni  Ni14  1  0.83333333  0.66666667  0.49684200  1.0
  Ni  Ni15  1  0.83333333  0.66666667  0.99684200  1.0
  Ni  Ni16  1  0.25000000  0.00000000  0.25210450  1.0
  Ni  Ni17  1  0.25000000  0.00000000  0.75210450  1.0
  Ni  Ni18  1  0.25000000  0.50000000  0.25210450  1.0
  Ni  Ni19  1  0.25000000  0.50000000  0.75210450  1.0
  Ni  Ni20  1  0.75000000  0.00000000  0.25210450  1.0
  Ni  Ni21  1  0.75000000  0.00000000  0.75210450  1.0
  Ni  Ni22  1  0.75000000  0.50000000  0.25210450  1.0
  Ni  Ni23  1  0.75000000  0.50000000  0.75210450  1.0
  Ni  Ni24  1  0.25000000  0.25000000  0.25210450  1.0
  Ni  Ni25  1  0.25000000  0.25000000  0.75210450  1.0
  Ni  Ni26  1  0.25000000  0.75000000  0.25210450  1.0
  Ni  Ni27  1  0.25000000  0.75000000  0.75210450  1.0
  Ni  Ni28  1  0.75000000  0.25000000  0.25210450  1.0
  Ni  Ni29  1  0.75000000  0.25000000  0.75210450  1.0
  Ni  Ni30  1  0.75000000  0.75000000  0.25210450  1.0
  Ni  Ni31  1  0.75000000  0.75000000  0.75210450  1.0
  Ni  Ni32  1  0.00000000  0.25000000  0.25210450  1.0
  Ni  Ni33  1  0.00000000  0.25000000  0.75210450  1.0
  Ni  Ni34  1  0.00000000  0.75000000  0.25210450  1.0
  Ni  Ni35  1  0.00000000  0.75000000  0.75210450  1.0
  Ni  Ni36  1  0.50000000  0.25000000  0.25210450  1.0
  Ni  Ni37  1  0.50000000  0.25000000  0.75210450  1.0
  Ni  Ni38  1  0.50000000  0.75000000  0.25210450  1.0
  Ni  Ni39  1  0.50000000  0.75000000  0.75210450  1.0
  H  H0  1  0.10227000  0.20454000  0.14519600  1.0
  H  H1  1  0.10227000  0.20454000  0.64519600  1.0
  H  H2  1  0.10227000  0.70454000  0.14519600  1.0
  H  H3  1  0.10227000  0.70454000  0.64519600  1.0
  H  H4  1  0.60227000  0.20454000  0.14519600  1.0
  H  H5  1  0.60227000  0.20454000  0.64519600  1.0
  H  H6  1  0.60227000  0.70454000  0.14519600  1.0
  H  H7  1  0.60227000  0.70454000  0.64519600  1.0
  H  H8  1  0.10227000  0.39773000  0.14519600  1.0
  H  H9  1  0.10227000  0.39773000  0.64519600  1.0
  H  H10  1  0.10227000  0.89773000  0.14519600  1.0
  H  H11  1  0.10227000  0.89773000  0.64519600  1.0
  H  H12  1  0.60227000  0.39773000  0.14519600  1.0
  H  H13  1  0.60227000  0.39773000  0.64519600  1.0
  H  H14  1  0.60227000  0.89773000  0.14519600  1.0
  H  H15  1  0.60227000  0.89773000  0.64519600  1.0
  H  H16  1  0.29546000  0.39773000  0.14519600  1.0
  H  H17  1  0.29546000  0.39773000  0.64519600  1.0
  H  H18  1  0.29546000  0.89773000  0.14519600  1.0
  H  H19  1  0.29546000  0.89773000  0.64519600  1.0
  H  H20  1  0.79546000  0.39773000  0.14519600  1.0
  H  H21  1  0.79546000  0.39773000  0.64519600  1.0
  H  H22  1  0.79546000  0.89773000  0.14519600  1.0
  H  H23  1  0.79546000  0.89773000  0.64519600  1.0
  H  H24  1  0.39773000  0.29546000  0.14519600  1.0
  H  H25  1  0.39773000  0.29546000  0.64519600  1.0
  H  H26  1  0.39773000  0.79546000  0.14519600  1.0
  H  H27  1  0.39773000  0.79546000  0.64519600  1.0
  H  H28  1  0.89773000  0.29546000  0.14519600  1.0
  H  H29  1  0.89773000  0.29546000  0.64519600  1.0
  H  H30  1  0.89773000  0.79546000  0.14519600  1.0
  H  H31  1  0.89773000  0.79546000  0.64519600  1.0
  H  H32  1  0.20454000  0.10227000  0.14519600  1.0
  H  H33  1  0.20454000  0.10227000  0.64519600  1.0
  H  H34  1  0.20454000  0.60227000  0.14519600  1.0
  H  H35  1  0.20454000  0.60227000  0.64519600  1.0
  H  H36  1  0.70454000  0.10227000  0.14519600  1.0
  H  H37  1  0.70454000  0.10227000  0.64519600  1.0
  H  H38  1  0.70454000  0.60227000  0.14519600  1.0
  H  H39  1  0.70454000  0.60227000  0.64519600  1.0
  H  H40  1  0.39773000  0.10227000  0.14519600  1.0
  H  H41  1  0.39773000  0.10227000  0.64519600  1.0
  H  H42  1  0.39773000  0.60227000  0.14519600  1.0
  H  H43  1  0.39773000  0.60227000  0.64519600  1.0
  H  H44  1  0.89773000  0.10227000  0.14519600  1.0
  H  H45  1  0.89773000  0.10227000  0.64519600  1.0
  H  H46  1  0.89773000  0.60227000  0.14519600  1.0
  H  H47  1  0.89773000  0.60227000  0.64519600  1.0
